21

B      0.049624   -1.424690   -0.005782
N      1.279829   -0.556346   -0.004803
C      2.598348   -0.942006   -0.005486
C      3.389120    0.180438   -0.004106
C      2.508712    1.237631   -0.002592
C      1.210629    0.770453   -0.003037
C     -0.080670    1.476539   -0.001916
C     -1.213388    0.795776   -0.002648
N     -1.225861   -0.604625   -0.004497
C     -2.492325   -1.027731   -0.004848
C     -3.373187    0.123249   -0.003190
C     -2.631883    1.214016   -0.001867
F      0.038478   -2.225805    1.230467
F      0.024962   -2.328667   -1.163140
H      2.897402   -1.974265   -0.006886
H      4.475710    0.199649   -0.004224
H      2.799770    2.286184   -0.001242
H     -0.109171    2.558201   -0.000482
H     -2.760723   -2.082952   -0.006196
H     -4.457569    0.078630   -0.003069
H     -2.927806    2.246321   -0.000455
